Simulation_Workspace/Phase6/results/dc_recovery_bus_3ph/fault_summary.csv
Fault_location,Fault_branch_sensor,Phase,Fault_enabled,Initial_window_start_s,Initial_window_end_exclusive_s,Initial_samples,Pre_event_current_RMS_A,Initial_current_waveform_RMS_A,Initial_peak_abs_current_A,Initial_phase_voltage_waveform_RMS_V,Full_window_fundamental_current_RMS_A,Fundamental_window_start_s,Fundamental_window_end_exclusive_s,Fundamental_samples,Initial_window_status,Fundamental_window_status
GIS230,faultGIS,A,1,0.15,0.17,100,0.000132651051244963,84607.5318599694,139096.281364994,912.986363386332,49909.0208008599,0.171,0.21,39,full_initial_cycle_measured,full_post_fault_DFT_windows_measured
GIS230,faultGIS,B,1,0.15,0.17,100,0.000132651041326511,59832.7041853051,103221.942321602,16426.0977641606,49877.6954264464,0.171,0.21,39,full_initial_cycle_measured,full_post_fault_DFT_windows_measured
GIS230,faultGIS,C,1,0.15,0.17,100,0.000132651044156743,61428.2058633778,106745.884237602,16083.8569455613,49902.419446427,0.171,0.21,39,full_initial_cycle_measured,full_post_fault_DFT_windows_measured
